src/cases/Case3/case3_with_inv_load_x3/transmission_Case3_with_inv_load_x3.m
%% MATPOWER Case Format : Version 2
function mpc = transmission_Case3_with_inv_load_x3
mpc.version = '2';

%%-----  Power Flow Data  -----%%
%% system MVA base
mpc.baseMVA = 100.0;
%% bus data
%    bus_i    type    Pd    Qd    Gs    Bs    area    Vm    Va    baseKV    zone    Vmax    Vmin
mpc.bus = [
	1	1	51.0	27.0	0.0	0.0	1	1.0	0.0	138.0	1	1.06	0.94				
	2	1	113.0	32.0	0.0	0.0	1	1.0	0.0	138.0	1	1.06	0.94				
	3	1	22.0	15.0	0.0	0.0	1	1.0	0.0	138.0	1	1.06	0.94				
	4	1	37.0	10.0	0.0	0.0	1	1.0	0.0	138.0	1	1.06	0.94				
	5	1	0.0	0.0	0.0	0.0	1	1.0	0.0	345.0	1	1.06	0.94				
	6	1	48.0	10.0	0.0	0.0	1	1.0	0.0	138.0	1	1.06	0.94				
	7	1	0.0	0.0	0.0	0.0	1	1.0	0.0	345.0	1	1.06	0.94				
	8	1	61.0	28.0	0.0	0.0	1	1.0	0.0	138.0	1	1.06	0.94				
	9	1	13.0	0.0	0.0	0.0	1	1.0	0.0	138.0	1	1.06	0.94				
	10	1	7.0	3.0	0.0	0.0	1	1.0	0.0	138.0	1	1.06	0.94				
	11	1	831.0	339.0	0.0	0.0	1	1.0	0.0	138.0	1	1.06	0.94				
	12	1	18.0	7.0	0.0	0.0	1	1.0	0.0	138.0	1	1.06	0.94				
	13	1	27.0	11.0	0.0	0.0	1	1.0	0.0	138.0	1	1.06	0.94				
	14	1	68.0	13.0	0.0	0.0	1	1.0	0.0	138.0	1	1.06	0.94				
	15	1	59.0	26.0	0.0	14.000000000000002	1	1.0	0.0	138.0	1	1.06	0.94				
	16	1	63.0	22.0	0.0	0.0	1	1.0	0.0	138.0	1	1.06	0.94				
	17	1	11.0	3.0	0.0	0.0	1	1.0	0.0	138.0	1	1.06	0.94				
	18	1	0.0	0.0	0.0	0.0	1	1.0	0.0	345.0	1	1.06	0.94				
	19	1	47.0	10.0	0.0	0.0	1	1.0	0.0	138.0	1	1.06	0.94				
	20	1	18.0	3.0	0.0	0.0	1	1.0	0.0	138.0	1	1.06	0.94				
	21	1	14.0	1.0	0.0	0.0	1	1.0	0.0	138.0	1	1.06	0.94				
	22	1	38.0	15.0	0.0	0.0	1	1.0	0.0	138.0	1	1.06	0.94				
	23	1	45.0	25.0	0.0	0.0	1	1.0	0.0	138.0	1	1.06	0.94				
	24	1	33.0	9.0	0.0	0.0	1	1.0	0.0	138.0	1	1.06	0.94				
	25	1	14.0	8.0	0.0	0.0	1	1.0	0.0	138.0	1	1.06	0.94				
	26	1	20.0	10.0	0.0	10.0	1	1.0	0.0	138.0	1	1.06	0.94				
	27	1	53.0	22.0	0.0	10.0	1	1.0	0.0	138.0	1	1.06	0.94				
	28	1	24.0	15.0	0.0	0.0	1	1.0	0.0	138.0	1	1.06	0.94				
	29	1	31.0	26.0	0.0	20.0	1	1.0	0.0	138.0	1	1.06	0.94				
	30	1	39.0	10.0	0.0	0.0	1	1.0	0.0	138.0	1	1.06	0.94				
	31	1	0.0	0.0	0.0	0.0	1	1.0	0.0	345.0	1	1.06	0.94				
	32	1	0.0	0.0	0.0	0.0	1	1.0	0.0	345.0	1	1.06	0.94				
	33	1	71.0	13.0	0.0	0.0	1	1.0	0.0	138.0	1	1.06	0.94				
	34	1	47.0	11.0	0.0	0.0	1	1.0	0.0	138.0	1	1.06	0.94				
	35	1	17.0	4.0	0.0	0.0	1	1.0	0.0	138.0	1	1.06	0.94				
	36	1	0.0	0.0	0.0	0.0	1	1.0	0.0	345.0	1	1.06	0.94				
	37	1	65.0	10.0	0.0	0.0	1	1.0	0.0	138.0	1	1.06	0.94				
	38	1	0.0	0.0	0.0	0.0	1	1.0	0.0	161.0	1	1.06	0.94				
	39	1	20.0	8.0	0.0	0.0	1	1.0	0.0	138.0	1	1.06	0.94				
	40	1	0.0	0.0	0.0	0.0	1	1.0	0.0	138.0	1	1.06	0.94				
	41	1	130.0	26.0	0.0	0.0	1	1.0	0.0	138.0	1	1.06	0.94				
	42	1	6.0	0.0	0.0	0.0	1	1.0	0.0	138.0	1	1.06	0.94				
	43	1	39.0	30.0	0.0	6.0	1	1.0	0.0	138.0	1	1.06	0.94				
	44	1	12.0	3.0	0.0	0.0	1	1.0	0.0	138.0	1	1.06	0.94				
	45	1	90.0	30.0	0.0	0.0	1	1.0	0.0	138.0	1	1.06	0.94				
	46	1	0.0	0.0	0.0	0.0	1	1.0	0.0	138.0	1	1.06	0.94				
	47	1	28.0	7.0	0.0	0.0	1	1.0	0.0	138.0	1	1.06	0.94				
	48	1	0.0	0.0	0.0	0.0	1	1.0	0.0	138.0	1	1.06	0.94				
	49	1	37.0	18.0	0.0	0.0	1	1.0	0.0	138.0	1	1.06	0.94				
	50	1	28.0	10.0	0.0	10.0	1	1.0	0.0	138.0	1	1.06	0.94				
	51	1	0.0	0.0	0.0	0.0	1	1.0	0.0	345.0	1	1.06	0.94				
	52	1	84.0	18.0	0.0	0.0	1	1.0	0.0	138.0	1	1.06	0.94				
	53	1	68.0	36.0	0.0	0.0	1	1.0	0.0	138.0	1	1.06	0.94				
	54	1	20.0	11.0	0.0	15.0	1	1.0	0.0	138.0	1	1.06	0.94				
	55	1	23.0	16.0	0.0	0.0	1	1.0	0.0	138.0	1	1.06	0.94				
	56	1	59.0	23.0	0.0	0.0	1	1.0	0.0	138.0	1	1.06	0.94				
	57	1	8.0	3.0	0.0	0.0	1	1.0	0.0	138.0	1	1.06	0.94				
	58	1	20.0	9.0	0.0	0.0	1	1.0	0.0	138.0	1	1.06	0.94				
	59	1	17.0	8.0	0.0	0.0	1	1.0	0.0	138.0	1	1.06	0.94				
	60	1	23.0	11.0	0.0	0.0	1	1.0	0.0	138.0	1	1.06	0.94				
	61	1	43.0	16.0	0.0	0.0	1	1.0	0.0	138.0	1	1.06	0.94				
	62	1	0.0	0.0	0.0	0.0	1	1.0	0.0	138.0	1	1.06	0.94				
	63	1	12.0	7.0	0.0	0.0	1	1.0	0.0	138.0	1	1.06	0.94				
	64	1	0.0	0.0	0.0	0.0	1	1.0	0.0	345.0	1	1.06	0.94				
	65	1	87.0	30.0	0.0	0.0	1	1.0	0.0	138.0	1	1.06	0.94				
	66	1	0.0	0.0	0.0	-40.0	1	1.0	0.0	138.0	1	1.06	0.94				
	67	1	77.0	14.0	0.0	0.0	1	1.0	0.0	138.0	1	1.06	0.94				
	68	1	163.0	42.0	0.0	0.0	1	1.0	0.0	138.0	1	1.06	0.94				
	69	1	21.0	10.0	0.0	0.0	1	1.0	0.0	138.0	1	1.06	0.94				
	70	1	0.0	0.0	0.0	0.0	1	1.0	0.0	138.0	1	1.06	0.94				
	71	1	0.0	0.0	0.0	-25.000000000000004	1	1.0	0.0	138.0	1	1.06	0.94				
	72	1	52.0	22.0	0.0	0.0	1	1.0	0.0	138.0	1	1.06	0.94				
	73	1	34.0	8.0	0.0	0.0	1	1.0	0.0	138.0	1	1.06	0.94				
	74	1	19.0	2.0	0.0	0.0	1	1.0	0.0	138.0	1	1.06	0.94				
	75	1	50.0	12.0	0.0	6.0	1	1.0	0.0	138.0	1	1.06	0.94				
	76	1	5.0	3.0	0.0	0.0	1	1.0	0.0	138.0	1	1.06	0.94				
	77	3	0.0	0.0	0.0	0.0	1	1.0	0.0	138.0	1	1.06	0.94				
	78	1	15.0	9.0	0.0	0.0	1	1.0	0.0	138.0	1	1.06	0.94				
	79	1	39.0	12.0	0.0	0.0	1	1.0	0.0	138.0	1	1.06	0.94				
	80	1	34.0	16.0	0.0	0.0	1	1.0	0.0	138.0	1	1.06	0.94				
	81	1	33.0	15.0	0.0	0.0	1	1.0	0.0	138.0	1	1.06	0.94				
	82	1	0.0	0.0	0.0	0.0	1	1.0	0.0	345.0	1	1.06	0.94				
	83	1	552.0	0.0	0.0	0.0	1	1.0	0.0	138.0	1	1.06	0.94				
	84	1	39.0	18.0	0.0	0.0	1	1.0	0.0	138.0	1	1.06	0.94				
	85	1	60.0	34.0	0.0	0.0	1	1.0	0.0	138.0	1	1.06	0.94				
	86	1	24.0	4.0	0.0	0.0	1	1.0	0.0	138.0	1	1.06	0.94				
	87	1	71.0	26.0	0.0	0.0	1	1.0	0.0	138.0	1	1.06	0.94				
	88	1	68.0	27.0	0.0	12.0	1	1.0	0.0	138.0	1	1.06	0.94				
	89	1	96.0	23.0	0.0	0.0	1	1.0	0.0	138.0	1	1.06	0.94				
	90	1	23.0	9.0	0.0	0.0	1	1.0	0.0	138.0	1	1.06	0.94				
	91	1	17.0	7.0	0.0	0.0	1	1.0	0.0	138.0	1	1.06	0.94				
	92	1	18.0	5.0	0.0	0.0	1	1.0	0.0	138.0	1	1.06	0.94				
	93	1	22.0	7.0	0.0	0.0	1	1.0	0.0	138.0	1	1.06	0.94				
	94	1	12.0	3.0	0.0	0.0	1	1.0	0.0	138.0	1	1.06	0.94				
	95	1	0.0	0.0	0.0	0.0	1	1.0	0.0	138.0	1	1.06	0.94				
	96	1	8.0	3.0	0.0	0.0	1	1.0	0.0	138.0	1	1.06	0.94				
	97	1	43.0	27.0	0.0	0.0	1	1.0	0.0	138.0	1	1.06	0.94				
	98	1	16.0	8.0	0.0	10.0	1	1.0	0.0	138.0	1	1.06	0.94				
	99	1	30.0	16.0	0.0	0.0	1	1.0	0.0	138.0	1	1.06	0.94				
	100	1	42.0	0.0	0.0	0.0	1	1.0	0.0	138.0	1	1.06	0.94				
	101	1	34.0	0.0	0.0	0.0	1	1.0	0.0	138.0	1	1.06	0.94				
	102	1	6.0	0.0	0.0	0.0	1	1.0	0.0	138.0	1	1.06	0.94				
	103	1	54.0	27.0	0.0	20.0	1	1.0	0.0	138.0	1	1.06	0.94				
	104	1	39.0	32.0	0.0	20.0	1	1.0	0.0	138.0	1	1.06	0.94				
	105	1	11.0	7.0	0.0	0.0	1	1.0	0.0	138.0	1	1.06	0.94				
	106	1	38.0	25.0	0.0	0.0	1	1.0	0.0	138.0	1	1.06	0.94				
	107	1	66.0	20.0	0.0	0.0	1	1.0	0.0	138.0	1	1.06	0.94				
	108	1	28.0	0.0	0.0	0.0	1	1.0	0.0	345.0	1	1.06	0.94				
	109	1	0.0	0.0	0.0	0.0	1	1.0	0.0	345.0	1	1.06	0.94				
	110	1	10.0	0.0	0.0	0.0	1	1.0	0.0	138.0	1	1.06	0.94				
	111	1	78.0	3.0	0.0	0.0	1	1.0	0.0	138.0	1	1.06	0.94				
	112	1	10.0	5.0	0.0	0.0	1	1.0	0.0	138.0	1	1.06	0.94				
	113	1	70.0	23.0	0.0	0.0	1	1.0	0.0	138.0	1	1.06	0.94				
	114	1	25.0	10.0	0.0	0.0	1	1.0	0.0	138.0	1	1.06	0.94				
	115	1	66.0	23.0	0.0	0.0	1	1.0	0.0	138.0	1	1.06	0.94				
	116	1	12.0	0.0	0.0	0.0	1	1.0	0.0	138.0	1	1.06	0.94				
	117	1	31.0	17.0	0.0	0.0	1	1.0	0.0	138.0	1	1.06	0.94				
	118	1	42.0	31.0	0.0	0.0	1	1.0	0.0	138.0	1	1.06	0.94				
];

%% generator data
%    bus    Pg    Qg    Qmax    Qmin    Vg    mBase    status    Pmax    Pmin    Pc1    Pc2    Qc1min    Qc1max    Qc2min    Qc2max    ramp_agc    ramp_10    ramp_30    ramp_q    apf
mpc.gen = [
	11	-154.0	-47.0	154.0	-60.0	1.0	100.0	1	308.0	0.0	0	0	0	0	0	0	0	0	0	0	0				
	8	-0.0	-25.0	70.0	-20.0	1.0	100.0	1	0.0	0.0	0	0	0	0	0	0	0	0	0	0	0				
	107	-0.0	-11.0	32.0	-10.0	1.0	100.0	1	0.0	0.0	0	0	0	0	0	0	0	0	0	0	0				
	75	-0.0	-0.0	200.0	-200.0	1.0	100.0	1	0.0	0.0	0	0	0	0	0	0	0	0	0	0	0				
	53	-0.0	-7.5	23.0	-8.0	1.0	100.0	1	0.0	0.0	0	0	0	0	0	0	0	0	0	0	0				
	95	-110.5	-32.0	111.0	-47.0	1.0	100.0	1	221.0	0.0	0	0	0	0	0	0	0	0	0	0	0				
	77	-591.0	-0.0	300.0	-300.0	1.0	100.0	1	1182.0	0.0	0	0	0	0	0	0	0	0	0	0	0				
	64	-252.5	-26.5	200.0	-147.0	1.0	100.0	1	505.0	0.0	0	0	0	0	0	0	0	0	0	0	0				
	7	-242.5	-0.0	243.0	-243.0	1.0	100.0	1	485.0	0.0	0	0	0	0	0	0	0	0	0	0	0				
	106	-0.0	-7.5	23.0	-8.0	1.0	100.0	1	0.0	0.0	0	0	0	0	0	0	0	0	0	0	0				
	46	-97.5	-0.0	98.0	-98.0	1.0	100.0	1	195.0	0.0	0	0	0	0	0	0	0	0	0	0	0				
	42	-0.0	-50.0	200.0	-100.0	1.0	100.0	1	0.0	0.0	0	0	0	0	0	0	0	0	0	0	0				
	41	-254.5	-45.0	255.0	-165.0	1.0	100.0	1	509.0	0.0	0	0	0	0	0	0	0	0	0	0	0				
	89	-0.0	-0.0	300.0	-300.0	1.0	100.0	1	0.0	0.0	0	0	0	0	0	0	0	0	0	0	0				
	50	-10.0	-0.0	10.0	-10.0	1.0	100.0	1	20.0	0.0	0	0	0	0	0	0	0	0	0	0	0				
	5	-220.5	-66.5	200.0	-67.0	1.0	100.0	1	441.0	0.0	0	0	0	0	0	0	0	0	0	0	0				
	97	-8.5	-0.0	9.0	-9.0	1.0	100.0	1	17.0	0.0	0	0	0	0	0	0	0	0	0	0	0				
	79	-0.0	-0.0	300.0	-300.0	1.0	100.0	1	0.0	0.0	0	0	0	0	0	0	0	0	0	0	0				
	2	-26.5	-0.0	27.0	-27.0	1.0	100.0	1	53.0	0.0	0	0	0	0	0	0	0	0	0	0	0				
	100	-0.0	-0.0	100.0	-100.0	1.0	100.0	1	0.0	0.0	0	0	0	0	0	0	0	0	0	0	0				
	115	-0.0	-0.0	300.0	-300.0	1.0	100.0	1	0.0	0.0	0	0	0	0	0	0	0	0	0	0	0				
	33	-0.0	-0.0	300.0	-300.0	1.0	100.0	1	0.0	0.0	0	0	0	0	0	0	0	0	0	0	0				
	88	-0.0	-1.5	9.0	-6.0	1.0	100.0	1	0.0	0.0	0	0	0	0	0	0	0	0	0	0	0				
	68	-0.0	-0.0	300.0	-300.0	1.0	100.0	1	0.0	0.0	0	0	0	0	0	0	0	0	0	0	0				
	49	-326.5	-52.5	155.0	-50.0	1.0	100.0	1	653.0	0.0	0	0	0	0	0	0	0	0	0	0	0				
	9	-0.0	-0.0	300.0	-300.0	1.0	100.0	1	0.0	0.0	0	0	0	0	0	0	0	0	0	0	0				
	43	-0.0	-7.5	23.0	-8.0	1.0	100.0	1	0.0	0.0	0	0	0	0	0	0	0	0	0	0	0				
	56	-0.0	-14.0	42.0	-14.0	1.0	100.0	1	0.0	0.0	0	0	0	0	0	0	0	0	0	0	0				
	108	-0.0	-0.0	300.0	-300.0	1.0	100.0	1	0.0	0.0	0	0	0	0	0	0	0	0	0	0	0				
	1	-0.0	-5.0	15.0	-5.0	1.0	100.0	1	0.0	0.0	0	0	0	0	0	0	0	0	0	0	0				
	110	-0.0	-0.0	100.0	-100.0	1.0	100.0	1	0.0	0.0	0	0	0	0	0	0	0	0	0	0	0				
	72	-0.0	-18.5	50.0	-13.0	1.0	100.0	1	0.0	0.0	0	0	0	0	0	0	0	0	0	0	0				
	19	-42.5	-4.0	43.0	-35.0	1.0	100.0	1	85.0	0.0	0	0	0	0	0	0	0	0	0	0	0				
	23	-0.0	-8.0	24.0	-8.0	1.0	100.0	1	0.0	0.0	0	0	0	0	0	0	0	0	0	0	0				
	116	-0.0	-0.0	100.0	-100.0	1.0	100.0	1	0.0	0.0	0	0	0	0	0	0	0	0	0	0	0				
	62	-39.5	-0.0	40.0	-40.0	1.0	100.0	1	79.0	0.0	0	0	0	0	0	0	0	0	0	0	0				
	37	-0.0	-3.0	9.0	-3.0	1.0	100.0	1	0.0	0.0	0	0	0	0	0	0	0	0	0	0	0				
	52	-0.0	-3.5	15.0	-8.0	1.0	100.0	1	0.0	0.0	0	0	0	0	0	0	0	0	0	0	0				
	45	-0.0	-10.0	30.0	-10.0	1.0	100.0	1	0.0	0.0	0	0	0	0	0	0	0	0	0	0	0				
	28	-0.0	-7.5	23.0	-8.0	1.0	100.0	1	0.0	0.0	0	0	0	0	0	0	0	0	0	0	0				
	29	-0.0	-7.5	23.0	-8.0	1.0	100.0	1	0.0	0.0	0	0	0	0	0	0	0	0	0	0	0				
	15	-0.0	-8.0	24.0	-8.0	1.0	100.0	1	0.0	0.0	0	0	0	0	0	0	0	0	0	0	0				
	67	-0.0	-0.0	20.0	-20.0	1.0	100.0	1	0.0	0.0	0	0	0	0	0	0	0	0	0	0	0				
	102	-0.0	-0.0	100.0	-100.0	1.0	100.0	1	0.0	0.0	0	0	0	0	0	0	0	0	0	0	0				
	55	-54.0	-12.5	40.0	-15.0	1.0	100.0	1	108.0	0.0	0	0	0	0	0	0	0	0	0	0	0				
	83	-0.0	-0.0	1000.0	-1000.0	1.0	100.0	1	0.0	0.0	0	0	0	0	0	0	0	0	0	0	0				
	16	-0.0	-7.5	23.0	-8.0	1.0	100.0	1	0.0	0.0	0	0	0	0	0	0	0	0	0	0	0				
	14	-0.0	-450.0	1000.0	-100.0	1.0	100.0	1	0.0	0.0	0	0	0	0	0	0	0	0	0	0	0				
	117	-0.0	-8.0	24.0	-8.0	1.0	100.0	1	0.0	0.0	0	0	0	0	0	0	0	0	0	0	0				
	38	-5.0	-0.0	5.0	-5.0	1.0	100.0	1	10.0	0.0	0	0	0	0	0	0	0	0	0	0	0				
	84	-392.0	-66.5	200.0	-67.0	1.0	100.0	1	784.0	0.0	0	0	0	0	0	0	0	0	0	0	0				
	65	-111.5	-13.5	112.0	-85.0	1.0	100.0	1	223.0	0.0	0	0	0	0	0	0	0	0	0	0	0				
	85	-0.0	-17.0	50.0	-16.0	1.0	100.0	1	0.0	0.0	0	0	0	0	0	0	0	0	0	0	0				
	40	-318.5	-45.0	300.0	-210.0	1.0	100.0	1	637.0	0.0	0	0	0	0	0	0	0	0	0	0	0				
];

%% branch data
%    f_bus    t_bus    r    x    b    rateA    rateB    rateC    ratio    angle    status    angmin    angmax
mpc.branch = [
	82	5	0.00901	0.0986	1.046	118.8	148.5	0.0	0	0	1	-30.0	30.0								
	90	71	0.0415	0.142	0.0366	154.0	154.0	0.0	0	0	1	-30.0	30.0								
	34	8	0.0601	0.1999	0.04978	141.0	141.0	0.0	0	0	1	-30.0	30.0								
	65	2	0.073	0.289	0.0738	99.0	99.0	0.0	0	0	1	-30.0	30.0								
	56	42	0.0615	0.203	0.0518	139.0	139.0	0.0	0	0	1	-30.0	30.0								
	68	110	0.0254	0.0836	0.0214	151.0	151.0	0.0	0	0	1	-30.0	30.0								
	7	31	0.00799	0.086	0.908	170.0	170.0	0.0	0	0	1	-30.0	30.0								
	111	46	0.00264	0.0135	0.01456	186.0	186.0	0.0	0	0	1	-30.0	30.0								
	88	34	0.0123	0.0406	0.01034	151.0	151.0	0.0	0	0	1	-30.0	30.0								
	26	28	0.043	0.148	0.0348	154.0	154.0	0.0	0	0	1	-30.0	30.0								
	118	22	0.0171	0.054700000000000006	0.01474	149.0	149.0	0.0	0	0	1	-30.0	30.0								
	6	40	0.013900000000000001	0.0712	0.01934	186.0	186.0	0.0	0	0	1	-30.0	30.0								
	2	11	0.0503	0.2293	0.0598	125.0	125.0	0.0	0	0	1	-30.0	30.0								
	107	34	0.0428	0.141	0.036	151.0	151.0	0.0	0	0	1	-30.0	30.0								
	51	83	0.00034	0.00405	0.164	7218.0	7218.0	0.0	0	0	1	-30.0	30.0								
	97	56	0.029800000000000004	0.0985	0.0251	151.0	151.0	0.0	0	0	1	-30.0	30.0								
	115	4	0.0145	0.0487	0.01222	152.0	152.0	0.0	0	0	1	-30.0	30.0								
	1	30	0.0129	0.04239999999999999	0.01082	151.0	151.0	0.0	0	0	1	-30.0	30.0								
	59	94	0.0255	0.0719	0.01788	140.0	140.0	0.0	0	0	1	-30.0	30.0								
	106	29	0.00994	0.0378	0.00986	161.0	161.0	0.0	0	0	1	-30.0	30.0								
	95	33	0.0318	0.163	0.1764	177.0	177.0	0.0	0	0	1	-30.0	30.0								
	58	19	0.0187	0.0616	0.01572	151.0	151.0	0.0	0	0	1	-30.0	30.0								
	22	78	0.0173	0.0885	0.024	186.0	186.0	0.0	0	0	1	-30.0	30.0								
	24	71	0.011000000000000001	0.04970000000000001	0.01318	175.0	175.0	0.0	0	0	1	-30.0	30.0								
	87	104	0.00546	0.024400000000000005	0.00648	174.0	174.0	0.0	0	0	1	-30.0	30.0								
	99	49	0.0178	0.058	0.06040000000000001	60.0	75.0	0.0	0	0	1	-30.0	30.0								
	79	113	0.0209	0.0688	0.01748	151.0	151.0	0.0	0	0	1	-30.0	30.0								
	73	49	0.0397	0.179	0.0476	160.0	160.0	0.0	0	0	1	-30.0	30.0								
	45	17	0.0132	0.0437	0.0444	151.0	151.0	0.0	0	0	1	-30.0	30.0								
	108	18	0.00244	0.0305	1.162	711.0	711.0	0.0	0	0	1	-30.0	30.0								
	60	2	0.0263	0.122	0.031	177.0	177.0	0.0	0	0	1	-30.0	30.0								
	9	107	0.00221	0.4115	0.10198	72.0	72.0	0.0	0	0	1	-30.0	30.0								
	11	46	0.0328	0.15	0.0388	176.0	176.0	0.0	0	0	1	-30.0	30.0								
	40	37	0.0393	0.1581	0.0414	166.0	166.0	0.0	0	0	1	-30.0	30.0								
	12	98	0.0608	0.2454	0.06067999999999999	117.0	117.0	0.0	0	0	1	-30.0	30.0								
	65	59	0.0486	0.137	0.0342	140.0	140.0	0.0	0	0	1	-30.0	30.0								
	111	67	0.0123	0.0561	0.01468	176.0	176.0	0.0	0	0	1	-30.0	30.0								
	41	78	0.0183	0.0934	0.0254	186.0	186.0	0.0	0	0	1	-30.0	30.0								
	84	47	0.022400000000000003	0.1015	0.02682	176.0	176.0	0.0	0	0	1	-30.0	30.0								
	77	107	0.03	0.127	0.12200000000000001	170.0	170.0	0.0	0	0	1	-30.0	30.0								
	43	62	0.022000000000000002	0.0755	0.02	154.0	154.0	0.0	0	0	1	-30.0	30.0								
	15	117	0.00871	0.0268	0.00568	146.0	146.0	0.0	0	0	1	-30.0	30.0								
	110	37	0.0387	0.1272	0.03268	151.0	151.0	0.0	0	0	1	-30.0	30.0								
	92	60	0.0405	0.1635	0.04058	166.0	166.0	0.0	0	0	1	-30.0	30.0								
	55	29	0.0535	0.1625	0.0408	145.0	145.0	0.0	0	0	1	-30.0	30.0								
	50	54	0.0601	0.18900000000000003	0.0472	148.0	148.0	0.0	0	0	1	-30.0	30.0								
	105	28	0.030199999999999998	0.0641	0.01234	122.0	122.0	0.0	0	0	1	-30.0	30.0								
	23	15	0.0752	0.247	0.0632	114.0	114.0	0.0	0	0	1	-30.0	30.0								
	107	88	0.0401	0.1323	0.03368	151.0	151.0	0.0	0	0	1	-30.0	30.0								
	40	37	0.0099	0.050499999999999996	0.0548	74.4	74.4	0.0	0	0	1	-30.0	30.0								
	100	49	0.018	0.0813	0.0216	175.0	175.0	0.0	0	0	1	-30.0	30.0								
	86	97	0.010799999999999999	0.0331	0.0083	146.0	146.0	0.0	0	0	1	-30.0	30.0								
	71	13	0.0321	0.10600000000000001	0.027	151.0	151.0	0.0	0	0	1	-30.0	30.0								
	8	41	0.029400000000000003	0.105	0.0228	157.0	157.0	0.0	0	0	1	-30.0	30.0								
	101	65	0.0191	0.0625	0.01604	150.0	150.0	0.0	0	0	1	-30.0	30.0								
	61	75	0.053000000000000005	0.18299999999999997	0.0472	154.0	154.0	0.0	0	0	1	-30.0	30.0								
	52	44	0.0343	0.0966	0.024200000000000003	140.0	140.0	0.0	0	0	1	-30.0	30.0								
	104	41	0.0156	0.0704	0.0187	175.0	175.0	0.0	0	0	1	-30.0	30.0								
	41	100	0.0454	0.20599999999999996	0.0546	140.0	140.0	0.0	0	0	1	-30.0	30.0								
	40	68	0.0518	0.188	0.05279999999999999	151.0	151.0	0.0	0	0	1	-30.0	30.0								
	15	12	0.0413	0.16809999999999997	0.04226	167.0	167.0	0.0	0	0	1	-30.0	30.0								
	66	72	0.0119	0.054	0.01426	176.0	176.0	0.0	0	0	1	-30.0	30.0								
	10	95	0.0038999999999999972	0.01999999999999999	0.34560000000000024	148.8	186.0	0.0	0	0	1	-30.0	30.0								
	18	64	0.00258	0.0322	1.23	710.0	710.0	0.0	0	0	1	-30.0	30.0								
	13	115	0.0184	0.06049999999999999	0.01552	151.0	151.0	0.0	0	0	1	-30.0	30.0								
	17	97	0.04739999999999999	0.1563	0.0399	151.0	151.0	0.0	0	0	1	-30.0	30.0								
	69	38	0.02828	0.2074	0.0445	141.0	141.0	0.0	0	0	1	-30.0	30.0								
	30	19	0.0484	0.16	0.0406	151.0	151.0	0.0	0	0	1	-30.0	30.0								
	107	70	0.00882	0.0355	0.00878	166.0	166.0	0.0	0	0	1	-30.0	30.0								
	109	5	0.00269	0.030200000000000005	0.38	675.0	675.0	0.0	0	0	1	-30.0	30.0								
	43	14	0.0247	0.064	0.062	135.0	135.0	0.0	0	0	1	-30.0	30.0								
	103	26	0.011200000000000002	0.03665	0.03796	150.0	150.0	0.0	0	0	1	-30.0	30.0								
	52	94	0.0343	0.0966	0.024200000000000003	140.0	140.0	0.0	0	0	1	-30.0	30.0								
	53	8	0.0444	0.148	0.0368	152.0	152.0	0.0	0	0	1	-30.0	30.0								
	103	22	0.0162	0.053000000000000005	0.0544	150.0	150.0	0.0	0	0	1	-30.0	30.0								
	77	34	0.0050625	0.01525	0.992	116.0	145.0	0.0	0	0	1	-30.0	30.0								
	77	8	0.0309	0.10099999999999999	0.10380000000000002	105.0	105.0	0.0	0	0	1	-30.0	30.0								
	113	19	0.00595	0.0196	0.00502	151.0	151.0	0.0	0	0	1	-30.0	30.0								
	98	27	0.022400000000000003	0.0901	0.0224	166.0	166.0	0.0	0	0	1	-30.0	30.0								
	55	106	0.0466	0.1584	0.0407	153.0	153.0	0.0	0	0	1	-30.0	30.0								
	49	61	0.06049999999999999	0.229	0.062	124.0	124.0	0.0	0	0	1	-30.0	30.0								
	19	21	0.0215	0.0707	0.01816	151.0	151.0	0.0	0	0	1	-30.0	30.0								
	37	49	0.0648	0.295	0.0472	98.0	98.0	0.0	0	0	1	-30.0	30.0								
	11	111	0.0317	0.145	0.0376	176.0	176.0	0.0	0	0	1	-30.0	30.0								
	70	102	0.00866	0.0454	0.011779999999999999	188.0	188.0	0.0	0	0	1	-30.0	30.0								
	49	55	0.016	0.0525	0.053599999999999995	60.400000000000006	60.400000000000006	0.0	0	0	1	-30.0	30.0								
	65	77	0.012312499999999999	0.040499999999999994	0.6624000000000001	69.60000000000001	87.00000000000001	0.0	0	0	1	-30.0	30.0								
	37	99	0.048100000000000004	0.158	0.0406	151.0	151.0	0.0	0	0	1	-30.0	30.0								
	59	92	0.0203	0.058800000000000005	0.01396	142.0	142.0	0.0	0	0	1	-30.0	30.0								
	8	87	0.00376	0.0124	0.01264	151.0	151.0	0.0	0	0	1	-30.0	30.0								
	74	19	0.00862	0.034	0.00874	164.0	164.0	0.0	0	0	1	-30.0	30.0								
	26	105	0.0625	0.132	0.0258	122.0	122.0	0.0	0	0	1	-30.0	30.0								
	45	23	0.012000000000000002	0.0394	0.0101	151.0	151.0	0.0	0	0	1	-30.0	30.0								
	35	44	0.04739999999999999	0.134	0.0332	140.0	140.0	0.0	0	0	1	-30.0	30.0								
	20	25	0.0183	0.0849	0.0216	177.0	177.0	0.0	0	0	1	-30.0	30.0								
	17	42	0.00913	0.0301	0.007680000000000001	151.0	151.0	0.0	0	0	1	-30.0	30.0								
	28	6	0.02	0.102	0.0276	186.0	186.0	0.0	0	0	1	-30.0	30.0								
	56	96	0.0135	0.0612	0.01628	176.0	176.0	0.0	0	0	1	-30.0	30.0								
	57	43	0.027800000000000002	0.0762	0.0202	138.0	138.0	0.0	0	0	1	-30.0	30.0								
	80	45	0.0744	0.2444	0.06268	115.0	115.0	0.0	0	0	1	-30.0	30.0								
	114	17	0.0454	0.1801	0.0466	158.0	158.0	0.0	0	0	1	-30.0	30.0								
	52	11	0.0803	0.23899999999999996	0.053599999999999995	117.0	117.0	0.0	0	0	1	-30.0	30.0								
	112	10	0.0342	0.159	0.0404	178.0	178.0	0.0	0	0	1	-30.0	30.0								
	33	56	0.0229	0.0755	0.01926	151.0	151.0	0.0	0	0	1	-30.0	30.0								
	37	76	0.0123	0.0559	0.014640000000000002	176.0	176.0	0.0	0	0	1	-30.0	30.0								
	27	50	0.04	0.1356	0.0332	153.0	153.0	0.0	0	0	1	-30.0	30.0								
	65	84	0.008999999999999996	0.04594999999999998	0.04960000000000002	148.8	148.8	0.0	0	0	1	-30.0	30.0								
	9	116	0.04880000000000001	0.196	0.0488	146.0	146.0	0.0	0	0	1	-30.0	30.0								
	16	52	0.00488	0.015099999999999999	0.0037400000000000003	146.0	146.0	0.0	0	0	1	-30.0	30.0								
	89	65	0.017875	0.08075	0.344	71.2	89.0	0.0	0	0	1	-30.0	30.0								
	67	47	0.0258	0.117	0.031	176.0	176.0	0.0	0	0	1	-30.0	30.0								
	53	81	0.0164	0.0544	0.01356	151.0	151.0	0.0	0	0	1	-30.0	30.0								
	108	31	0.00431	0.0504	0.514	580.0	580.0	0.0	0	0	1	-30.0	30.0								
	15	71	0.00256	0.0094	0.00984	159.0	159.0	0.0	0	0	1	-30.0	30.0								
	49	3	0.0277	0.1262	0.0328	176.0	176.0	0.0	0	0	1	-30.0	30.0								
	65	84	0.002249999999999999	0.011487499999999994	0.19840000000000008	148.8	148.8	0.0	0	0	1	-30.0	30.0								
	30	66	0.024099999999999996	0.108	0.028400000000000005	175.0	175.0	0.0	0	0	1	-30.0	30.0								
	19	39	0.0329	0.14	0.0358	170.0	170.0	0.0	0	0	1	-30.0	30.0								
	113	80	0.02225	0.0731	0.01876	151.0	151.0	0.0	0	0	1	-30.0	30.0								
	29	48	0.026099999999999998	0.0703	0.01844	137.0	137.0	0.0	0	0	1	-30.0	30.0								
	91	86	0.023699999999999995	0.0943	0.0238	165.0	165.0	0.0	0	0	1	-30.0	30.0								
	31	82	0.00464	0.054	0.422	542.0	542.0	0.0	0	0	1	-30.0	30.0								
	46	67	0.00824	0.0376	0.0098	176.0	176.0	0.0	0	0	1	-30.0	30.0								
	45	90	0.038	0.12439999999999998	0.03194	150.0	150.0	0.0	0	0	1	-30.0	30.0								
	50	101	0.038	0.127	0.0316	152.0	152.0	0.0	0	0	1	-30.0	30.0								
	52	11	0.0825	0.251	0.05689999999999999	112.0	112.0	0.0	0	0	1	-30.0	30.0								
	49	106	0.0451	0.204	0.05410000000000001	141.0	141.0	0.0	0	0	1	-30.0	30.0								
	36	109	0.00172	0.02	0.216	687.0	687.0	0.0	0	0	1	-30.0	30.0								
	23	20	0.0252	0.117	0.029800000000000004	178.0	178.0	0.0	0	0	1	-30.0	30.0								
	8	41	0.017	0.0485	0.0472	56.400000000000006	70.50000000000001	0.0	0	0	1	-30.0	30.0								
	37	63	0.0258	0.08479999999999999	0.0218	151.0	151.0	0.0	0	0	1	-30.0	30.0								
	55	43	0.03906	0.18129999999999996	0.0461	159.0	159.0	0.0	0	0	1	-30.0	30.0								
	85	23	0.011190000000000002	0.0493	0.01142	173.0	173.0	0.0	0	0	1	-30.0	30.0								
	72	74	0.00459	0.0208	0.0055	176.0	176.0	0.0	0	0	1	-30.0	30.0								
	25	112	0.0209	0.097	0.024599999999999997	178.0	178.0	0.0	0	0	1	-30.0	30.0								
	65	2	0.0869	0.291	0.073	97.0	97.0	0.0	0	0	1	-30.0	30.0								
	51	32	0.0017499999999999998	0.0202	0.808	684.0	684.0	0.0	0	0	1	-30.0	30.0								
	40	68	0.0238	0.09969999999999998	0.106	169.0	169.0	0.0	0	0	1	-30.0	30.0								
	66	113	0.0203	0.0682	0.01738	152.0	152.0	0.0	0	0	1	-30.0	30.0								
	41	22	0.0356	0.182	0.0494	159.0	159.0	0.0	0	0	1	-30.0	30.0								
	3	76	0.0246	0.112	0.029400000000000003	176.0	176.0	0.0	0	0	1	-30.0	30.0								
	89	65	0.0089375	0.040375	0.688	71.2	89.0	0.0	0	0	1	-30.0	30.0								
	28	69	0.035	0.123	0.0276	156.0	156.0	0.0	0	0	1	-30.0	30.0								
	29	61	0.014	0.054700000000000006	0.01434	164.0	164.0	0.0	0	0	1	-30.0	30.0								
	96	93	0.0023	0.0104	0.00276	175.0	175.0	0.0	0	0	1	-30.0	30.0								
	5	51	0.00138	0.016	0.6379999999999999	686.0	686.0	0.0	0	0	1	-30.0	30.0								
	79	66	0.0017599999999999998	0.00798	0.0021	176.0	176.0	0.0	0	0	1	-30.0	30.0								
	2	16	0.0169	0.0707	0.0202	169.0	169.0	0.0	0	0	1	-30.0	30.0								
	63	99	0.0223	0.0732	0.01876	151.0	151.0	0.0	0	0	1	-30.0	30.0								
	8	103	0.029800000000000004	0.0853	0.08174	112.8	112.8	0.0	0	0	1	-30.0	30.0								
	10	56	0.0317	0.1153	0.1173	158.0	158.0	0.0	0	0	1	-30.0	30.0								
	1	58	0.0303	0.0999	0.0254	151.0	151.0	0.0	0	0	1	-30.0	30.0								
	4	89	0.041	0.135	0.0344	151.0	151.0	0.0	0	0	1	-30.0	30.0								
	10	9	0.0135	0.0492	0.04979999999999999	158.0	158.0	0.0	0	0	1	-30.0	30.0								
	33	93	0.0164	0.0741	0.01972	175.0	175.0	0.0	0	0	1	-30.0	30.0								
	99	118	0.0132	0.0434	0.0111	151.0	151.0	0.0	0	0	1	-30.0	30.0								
	16	11	0.04739	0.21579999999999996	0.05646	133.0	133.0	0.0	0	0	1	-30.0	30.0								
	101	77	0.0844	0.2778	0.07092	61.2	61.2	0.0	0	0	1	-30.0	30.0								
	24	117	0.00224	0.0102	0.00268	176.0	176.0	0.0	0	0	1	-30.0	30.0								
	67	84	0.04819999999999999	0.218	0.0578	132.0	132.0	0.0	0	0	1	-30.0	30.0								
	70	116	0.0446	0.18	0.04444	159.0	159.0	0.0	0	0	1	-30.0	30.0								
	65	35	0.0267	0.0752	0.01874	140.0	140.0	0.0	0	0	1	-30.0	30.0								
	28	40	0.0239	0.17300000000000001	0.04700000000000001	168.0	168.0	0.0	0	0	1	-30.0	30.0								
	2	52	0.0027500000000000003	0.00955	0.007320000000000001	155.0	155.0	0.0	0	0	1	-30.0	30.0								
	71	115	0.0593	0.168	0.042	140.0	140.0	0.0	0	0	1	-30.0	30.0								
	99	22	0.026900000000000004	0.0869	0.023	149.0	149.0	0.0	0	0	1	-30.0	30.0								
	54	65	0.0179	0.050499999999999996	0.01258	140.0	140.0	0.0	0	0	1	-30.0	30.0								
	19	114	0.021199999999999997	0.0834	0.0214	164.0	164.0	0.0	0	0	1	-30.0	30.0								
	29	75	0.053000000000000005	0.18299999999999997	0.0472	154.0	154.0	0.0	0	0	1	-30.0	30.0								
	21	45	0.0595	0.195	0.0502	144.0	144.0	0.0	0	0	1	-30.0	30.0								
	34	81	0.0145	0.048100000000000004	0.01198	151.0	151.0	0.0	0	0	1	-30.0	30.0								
	41	73	0.0238	0.108	0.0286	176.0	176.0	0.0	0	0	1	-30.0	30.0								
	33	91	0.01913	0.0855	0.0216	174.0	174.0	0.0	0	0	1	-30.0	30.0								
	48	57	0.0105	0.0288	0.0076	138.0	138.0	0.0	0	0	1	-30.0	30.0								
	17	85	0.0123	0.050499999999999996	0.01298	167.0	167.0	0.0	0	0	1	-30.0	30.0								
	115	89	0.055499999999999994	0.18299999999999997	0.0466	151.0	151.0	0.0	0	0	1	-30.0	30.0								
	27	65	0.0684	0.18599999999999997	0.0444	138.0	138.0	0.0	0	0	1	-30.0	30.0								
	5	84	0.0	0.037	0.0	793.0	793.0	0.0	0.935	0.0	1	-30.0	30.0								
	36	11	0.0	0.0386	0.0	760.0	760.0	0.0	0.96	0.0	1	-30.0	30.0								
	7	95	0.0	0.0382	0.0	768.0	768.0	0.0	0.96	0.0	1	-30.0	30.0								
	109	46	0.0	0.0268	0.0	1095.0	1095.0	0.0	0.985	0.0	1	-30.0	30.0								
	31	17	0.0	0.0388	0.0	756.0	756.0	0.0	0.96	0.0	1	-30.0	30.0								
	51	77	0.0	0.037	0.0	793.0	793.0	0.0	0.935	0.0	1	-30.0	30.0								
	32	41	0.0	0.037	0.0	793.0	793.0	0.0	0.935	0.0	1	-30.0	30.0								
	108	66	0.0	0.0267	0.0	1099.0	1099.0	0.0	0.985	0.0	1	-30.0	30.0								
	82	71	0.0	0.0375	0.0	783.0	783.0	0.0	0.935	0.0	1	-30.0	30.0								
];

%%-----  OPF Data  -----%%
%% cost data
%    1    startup    shutdown    n    x1    y1    ...    xn    yn
%    2    startup    shutdown    n    c(n-1)    ...    c0
mpc.gencost = [
	2	0.0	0.0	2	24.861868	0.0
	2	0.0	0.0	2	0.0	0.0
	2	0.0	0.0	2	0.0	0.0
	2	0.0	0.0	2	0.0	0.0
	2	0.0	0.0	2	0.0	0.0
	2	0.0	0.0	2	28.948321	0.0
	2	0.0	0.0	2	25.758442	0.0
	2	0.0	0.0	2	24.98342	0.0
	2	0.0	0.0	2	22.22098	0.0
	2	0.0	0.0	2	0.0	0.0
	2	0.0	0.0	2	16.056042	0.0
	2	0.0	0.0	2	0.0	0.0
	2	0.0	0.0	2	24.600772	0.0
	2	0.0	0.0	2	0.0	0.0
	2	0.0	0.0	2	24.202306	0.0
	2	0.0	0.0	2	34.781778	0.0
	2	0.0	0.0	2	25.993982	0.0
	2	0.0	0.0	2	0.0	0.0
	2	0.0	0.0	2	27.277343	0.0
	2	0.0	0.0	2	0.0	0.0
	2	0.0	0.0	2	0.0	0.0
	2	0.0	0.0	2	0.0	0.0
	2	0.0	0.0	2	0.0	0.0
	2	0.0	0.0	2	0.0	0.0
	2	0.0	0.0	2	12.61217	0.0
	2	0.0	0.0	2	0.0	0.0
	2	0.0	0.0	2	0.0	0.0
	2	0.0	0.0	2	0.0	0.0
	2	0.0	0.0	2	0.0	0.0
	2	0.0	0.0	2	0.0	0.0
	2	0.0	0.0	2	0.0	0.0
	2	0.0	0.0	2	0.0	0.0
	2	0.0	0.0	2	124.581564	0.0
	2	0.0	0.0	2	0.0	0.0
	2	0.0	0.0	2	0.0	0.0
	2	0.0	0.0	2	35.043401	0.0
	2	0.0	0.0	2	0.0	0.0
	2	0.0	0.0	2	0.0	0.0
	2	0.0	0.0	2	0.0	0.0
	2	0.0	0.0	2	0.0	0.0
	2	0.0	0.0	2	0.0	0.0
	2	0.0	0.0	2	0.0	0.0
	2	0.0	0.0	2	0.0	0.0
	2	0.0	0.0	2	0.0	0.0
	2	0.0	0.0	2	28.649471	0.0
	2	0.0	0.0	2	0.0	0.0
	2	0.0	0.0	2	0.0	0.0
	2	0.0	0.0	2	0.0	0.0
	2	0.0	0.0	2	0.0	0.0
	2	0.0	0.0	2	34.072633	0.0
	2	0.0	0.0	2	32.668781	0.0
	2	0.0	0.0	2	16.673942	0.0
	2	0.0	0.0	2	0.0	0.0
	2	0.0	0.0	2	24.605102	0.0
];

